*SPEF "IEEE 1481.1999"
*DESIGN "boolean_equation"
*DATE "12:33:18 Sunday October 22, 2023"
*VENDOR "unknown"
*PROGRAM "qrouter"
*VERSION "unknown"
*DESIGN_FLOW "qflow"
*DIVIDER /
*DELIMITER :
*BUS_DELIMITER <>
*T_UNIT 1 PS
*C_UNIT 1 FF
*R_UNIT 1 OHM
*L_UNIT 1 HENRY

*NAME_MAP
*1 B
*2 NAND2X1_1
*3 A
*4 NAND2X1_1
*5 _0_
*6 NAND2X1_1
*7 AND2X2_1
*8 D
*9 NAND3X1_1
*10 C
*11 NAND3X1_1
*12 E
*13 NAND3X1_1
*14 _1_
*15 NAND3X1_1
*16 AND2X2_1
*17 _2_
*18 AND2X2_1
*19 BUFX2_1
*20 F
*21 BUFX2_1

*PORTS
*1 I
*3 I
*8 I
*10 I
*12 I
*20 O

*D_NET *1 0.0004944
*CONN
*P *1 O
*I *2:A I *L 0.0125
*CAP
1 1_1 0.0004944
*RES
1 *1 1_1 2.13333
2 1_1 *2:A 0
*END
*D_NET *3 0.00045564
*CONN
*P *3 O
*I *4:B I *L 0.0129035
*CAP
1 3_1 0.00045564
*RES
1 *3 3_1 2.02667
2 3_1 *4:B 0
*END
*D_NET *5 0.00070752
*CONN
*I *6:Y O *D NAND2X1
*I *7:B I *L 0.0125119
*CAP
1 5_1 0.00070752
*RES
1 *6:Y 5_1 2.77333
2 5_1 *7:B 0
*END
*D_NET *8 0.0004788
*CONN
*P *8 O
*I *9:A I *L 0.0158812
*CAP
1 8_1 0.0004788
*RES
1 *8 8_1 2.13333
2 8_1 *9:A 0
*END
*D_NET *10 0.00047502
*CONN
*P *10 O
*I *11:B I *L 0.0159247
*CAP
1 10_1 0.00047502
*RES
1 *10 10_1 2.08
2 10_1 *11:B 0
*END
*D_NET *12 0.00048296
*CONN
*P *12 O
*I *13:C I *L 0.0164926
*CAP
1 12_1 0.00048296
*RES
1 *12 12_1 1.92
2 12_1 *13:C 0
*END
*D_NET *14 0.00029248
*CONN
*I *15:Y O *D NAND3X1
*I *16:A I *L 0.0129068
*CAP
1 14_1 0.00029248
*RES
1 *15:Y 14_1 0.853333
2 14_1 *16:A 0
*END
*D_NET *17 0.00014624
*CONN
*I *18:Y O *D AND2X2
*I *19:A I *L 0.00933171
*CAP
1 17_1 0.00014624
*RES
1 *18:Y 17_1 0.426667
2 17_1 *19:A 0
*END
*D_NET *20 0.00062192
*CONN
*I *21:Y O *D BUFX2
*P *20 I
*CAP
1 20_1 0.00062192
*RES
1 *21:Y 20_1 2.56
2 20_1 *20 0
*END
