*SPEF "IEEE 1481.1999"
*DESIGN "down_counter_3bit"
*DATE "10:05:16 Friday October 20, 2023"
*VENDOR "unknown"
*PROGRAM "qrouter"
*VERSION "unknown"
*DESIGN_FLOW "qflow"
*DIVIDER /
*DELIMITER :
*BUS_DELIMITER <>
*T_UNIT 1 PS
*C_UNIT 1 FF
*R_UNIT 1 OHM
*L_UNIT 1 HENRY

*NAME_MAP
*1 _6_[1]
*2 DFFSR_2
*3 XNOR2X1_1
*4 OAI21X1_1
*5 BUFX2_2
*6 INVX1_1
*7 _6_[0]
*8 DFFSR_1
*9 XNOR2X1_1
*10 BUFX2_1
*11 INVX1_3
*12 OAI21X1_1
*13 _1_
*14 INVX2_1
*15 DFFSR_3
*16 DFFSR_2
*17 DFFSR_1
*18 _6_[2]
*19 DFFSR_3
*20 INVX1_2
*21 BUFX2_3
*22 OAI21X1_1
*23 clk
*24 DFFSR_1
*25 DFFSR_3
*26 DFFSR_2
*27 _0_[0]
*28 INVX1_3
*29 NAND3X1_1
*30 DFFSR_1
*31 _3_
*32 INVX1_1
*33 NAND3X1_1
*34 _2_
*35 INVX1_2
*36 NAND3X1_1
*37 _4_
*38 NAND3X1_1
*39 NAND2X1_1
*40 _5_
*41 OAI21X1_1
*42 NAND2X1_1
*43 _0_[2]
*44 NAND2X1_1
*45 DFFSR_3
*46 _0_[1]
*47 XNOR2X1_1
*48 DFFSR_2
*49 rst
*50 INVX2_1
*51 count[0]
*52 BUFX2_1
*53 count[1]
*54 BUFX2_2
*55 count[2]
*56 BUFX2_3

*PORTS
*23 I
*49 I
*51 O
*53 O
*55 O

*D_NET *1 0.00080928
*CONN
*I *2:Q O *D DFFSR
*I *3:B I *L 0.0524659
*I *4:B I *L 0.0270702
*I *5:A I *L 0.0134147
*I *6:A I *L 0.0134094
*CAP
1 1_1 0.00023016
2 1_2 0.0001848
3 1_3 0.00017472
4 1_4 0
5 1_5 0.0001008
6 1_6 5.76e-05
7 1_7 6.12e-05
*RES
1 *2:Q 1_1 4.06
2 1_1 1_2 1.4
3 1_2 *3:B 0
4 1_1 1_3 4.85333
5 1_3 1_4 0
6 1_4 *4:B 0
7 1_3 1_5 2.8
8 1_5 1_6 0.373333
9 1_6 *5:A 0
10 1_5 1_7 0.7
11 1_7 *6:A 0
*END
*D_NET *7 0.00046752
*CONN
*I *8:Q O *D DFFSR
*I *9:A I *L 0.0435905
*I *10:A I *L 0.0134147
*I *11:A I *L 0.0134094
*I *12:A I *L 0.0265312
*CAP
1 7_1 0
2 7_2 5.376e-05
3 7_3 0.0001296
4 7_4 0.00015456
5 7_5 0.0001296
*RES
1 *8:Q 7_1 0
2 7_1 7_2 1.49333
3 7_2 *9:A 0
4 7_2 7_3 0.84
5 7_3 *10:A 0
6 7_1 7_4 4.29333
7 7_4 *11:A 0
8 7_4 7_5 0.84
9 7_5 *12:A 0
*END
*D_NET *13 0.00029304
*CONN
*I *14:Y O *D INVX2
*I *15:R I *L 0.0357813
*I *16:R I *L 0.0357813
*I *17:R I *L 0.0357813
*CAP
1 13_1 8.4e-06
2 13_2 3.36e-05
3 13_3 4.704e-05
4 13_4 0
5 13_5 0.000204
*RES
1 *14:Y 13_1 0.233333
2 13_1 13_2 0.933333
3 13_2 *15:R 0
4 13_1 13_3 1.30667
5 13_3 13_4 0
6 13_4 *16:R 0
7 13_4 13_5 2.33333
8 13_5 *17:R 0
*END
*D_NET *18 0.00053736
*CONN
*I *19:Q O *D DFFSR
*I *20:A I *L 0.0134094
*I *21:A I *L 0.0134147
*I *22:C I *L 0.0180101
*CAP
1 18_1 0
2 18_2 4.704e-05
3 18_3 6.12e-05
4 18_4 7.8e-05
5 18_5 0.00035112
*RES
1 *19:Q 18_1 0
2 18_1 18_2 1.30667
3 18_2 18_3 0.7
4 18_3 *20:A 0
5 18_2 18_4 0.606667
6 18_4 *21:A 0
7 18_1 18_5 4.24667
8 18_5 *22:C 0
*END
*D_NET *23 0.00059064
*CONN
*P *23 O
*I *24:CLK I *L 0.0134469
*I *25:CLK I *L 0.0134469
*I *26:CLK I *L 0.0134469
*CAP
1 23_1 0.00025128
2 23_2 2.04e-05
3 23_3 0.0001308
4 23_4 9.408e-05
5 23_5 9.408e-05
*RES
1 *23 23_1 3.31333
2 23_1 23_2 0.233333
3 23_2 *24:CLK 0
4 23_2 23_3 1.63333
5 23_3 23_4 2.61333
6 23_4 *25:CLK 0
7 23_3 23_5 2.61333
8 23_5 *26:CLK 0
*END
*D_NET *27 0.00020208
*CONN
*I *28:Y O *D INVX1
*I *29:B I *L 0.022204
*I *30:D I *L 0.0135592
*CAP
1 27_1 0
2 27_2 0.00013488
3 27_3 6.72e-05
*RES
1 *28:Y 27_1 0
2 27_1 27_2 3.08
3 27_2 *29:B 0
4 27_1 27_3 1.86667
5 27_3 *30:D 0
*END
*D_NET *31 0.0001152
*CONN
*I *32:Y O *D INVX1
*I *33:C I *L 0.0226301
*CAP
1 31_1 0.0001152
*RES
1 *32:Y 31_1 0.746667
2 31_1 *33:C 0
*END
*D_NET *34 0.0002292
*CONN
*I *35:Y O *D INVX1
*I *36:A I *L 0.0222511
*CAP
1 34_1 0.0002292
*RES
1 *35:Y 34_1 2.19333
2 34_1 *36:A 0
*END
*D_NET *37 5.76e-05
*CONN
*I *38:Y O *D NAND3X1
*I *39:B I *L 0.0180112
*CAP
1 37_1 5.76e-05
*RES
1 *38:Y 37_1 0.373333
2 37_1 *39:B 0
*END
*D_NET *40 0.000144
*CONN
*I *41:Y O *D OAI21X1
*I *42:A I *L 0.0177118
*CAP
1 40_1 0.000144
*RES
1 *41:Y 40_1 0.933333
2 40_1 *42:A 0
*END
*D_NET *43 0.00019632
*CONN
*I *44:Y O *D NAND2X1
*I *45:D I *L 0.0135592
*CAP
1 43_1 0.00019632
*RES
1 *44:Y 43_1 3.45333
2 43_1 *45:D 0
*END
*D_NET *46 0.00016944
*CONN
*I *47:Y O *D XNOR2X1
*I *48:D I *L 0.0135592
*CAP
1 46_1 0.00016944
*RES
1 *47:Y 46_1 2.70667
2 46_1 *48:D 0
*END
*D_NET *49 0.00021624
*CONN
*P *49 O
*I *50:A I *L 0.0274396
*CAP
1 49_1 0.00021624
*RES
1 *49 49_1 2.47333
2 49_1 *50:A 0
*END
*D_NET *51 6.096e-05
*CONN
*I *52:Y O *D BUFX2
*P *51 I
*CAP
1 51_1 6.096e-05
*RES
1 *52:Y 51_1 1.02667
2 51_1 *51 0
*END
*D_NET *53 0.00011856
*CONN
*I *54:Y O *D BUFX2
*P *53 I
*CAP
1 53_1 0.00011856
*RES
1 *54:Y 53_1 1.4
2 53_1 *53 0
*END
*D_NET *55 6.096e-05
*CONN
*I *56:Y O *D BUFX2
*P *55 I
*CAP
1 55_1 6.096e-05
*RES
1 *56:Y 55_1 1.02667
2 55_1 *55 0
*END
