*SPEF "IEEE 1481.1999"
*DESIGN "full_adder"
*DATE "13:21:30 Monday January 29, 2024"
*VENDOR "unknown"
*PROGRAM "qrouter"
*VERSION "unknown"
*DESIGN_FLOW "qflow"
*DIVIDER /
*DELIMITER :
*BUS_DELIMITER <>
*T_UNIT 1 PS
*C_UNIT 1 FF
*R_UNIT 1 OHM
*L_UNIT 1 HENRY

*NAME_MAP
*1 cout
*2 BUFX2_1
*3 sum
*4 BUFX2_2
*5 ERROR

*PORTS
*1 O

*D_NET *1 0.00017616
*CONN
*I *2:Y O *D BUFX2
*P *1 I
*CAP
1 1_1 0.00017616
*RES
1 *2:Y 1_1 1.77333
2 1_1 *1 0
*END
*D_NET *3 0.0001272
*CONN
*I *4:Y O *D BUFX2
*I *5:ERROR I *L 0
*CAP
1 3_1 0.0001272
*RES
1 *4:Y 3_1 1.02667
2 3_1 *5:ERROR 0
*END
