*SPEF "IEEE 1481.1999"
*DESIGN "logicfunctions"
*DATE "13:17:59 Monday January 29, 2024"
*VENDOR "unknown"
*PROGRAM "qrouter"
*VERSION "unknown"
*DESIGN_FLOW "qflow"
*DIVIDER /
*DELIMITER :
*BUS_DELIMITER <>
*T_UNIT 1 PS
*C_UNIT 1 FF
*R_UNIT 1 OHM
*L_UNIT 1 HENRY

*NAME_MAP
*1 x2
*2 INVX1_1
*3 AOI22X1_1
*4 x1
*5 OAI22X1_1
*6 AOI22X1_1
*7 x4
*8 AOI22X1_1
*9 OAI22X1_1
*10 _2_
*11 OAI22X1_1
*12 INVX1_2
*13 NAND2X1_1
*14 _3_
*15 AOI22X1_1
*16 NAND2X1_1
*17 INVX1_3
*18 x3
*19 AOI22X1_1
*20 INVX1_4
*21 _1_
*22 INVX1_1
*23 OAI22X1_1
*24 _0_
*25 INVX1_4
*26 OAI22X1_1
*27 _6_
*28 INVX1_2
*29 BUFX2_3
*30 _4_
*31 NAND2X1_1
*32 BUFX2_1
*33 f
*34 BUFX2_1
*35 _5_
*36 INVX1_3
*37 BUFX2_2
*38 g
*39 BUFX2_2
*40 h
*41 BUFX2_3

*PORTS
*1 I
*4 I
*7 I
*18 I
*33 O
*38 O
*40 O

*D_NET *1 0.00092038
*CONN
*P *1 O
*I *2:A I *L 0.00932456
*I *3:D I *L 0.0186552
*CAP
1 1_1 0.0002316
2 1_2 0.0003721
3 1_3 0.00031668
*RES
1 *1 1_1 1.06667
2 1_1 1_2 1.33333
3 1_2 *2:A 0
4 1_1 1_3 1.38667
5 1_3 *3:D 0
*END
*D_NET *4 0.00097434
*CONN
*P *4 O
*I *5:B I *L 0.0182258
*I *6:A I *L 0.0173718
*CAP
1 4_1 0.0005256
2 4_2 6.57e-05
3 4_3 0.00038304
*RES
1 *4 4_1 2.13333
2 4_1 4_2 0.266667
3 4_2 *5:B 0
4 4_2 4_3 1.70667
5 4_3 *6:A 0
*END
*D_NET *7 0.00112322
*CONN
*P *7 O
*I *8:C I *L 0.0182378
*I *9:C I *L 0.0179862
*CAP
1 7_1 0.00032424
2 7_2 6.57e-05
3 7_3 0.00073328
*RES
1 *7 7_1 1.49333
2 7_1 7_2 0.266667
3 7_2 *8:C 0
4 7_2 7_3 2.98667
5 7_3 *9:C 0
*END
*D_NET *10 0.00117966
*CONN
*I *11:Y O *D OAI22X1
*I *12:A I *L 0.00932456
*I *13:B I *L 0.0129035
*CAP
1 10_1 0.00052134
2 10_2 0.00010512
3 10_3 0.0005532
*RES
1 *11:Y 10_1 2.29333
2 10_1 10_2 0.426667
3 10_2 *12:A 0
4 10_1 10_3 2.34667
5 10_3 *13:B 0
*END
*D_NET *14 0.00177468
*CONN
*I *15:Y O *D AOI22X1
*I *16:A I *L 0.0125
*I *17:A I *L 0.00932456
*CAP
1 14_1 0.0012994
2 14_2 0.00047528
*RES
1 *15:Y 14_1 5.54667
2 14_1 *16:A 0
3 14_1 14_2 1.38667
4 14_2 *17:A 0
*END
*D_NET *18 0.00138574
*CONN
*P *18 O
*I *19:B I *L 0.0179972
*I *20:A I *L 0.00932456
*CAP
1 18_1 0.0003285
2 18_2 0.00092584
3 18_3 0.0001314
*RES
1 *18 18_1 1.33333
2 18_1 18_2 3.62667
3 18_2 *19:B 0
4 18_1 18_3 0.533333
5 18_3 *20:A 0
*END
*D_NET *21 0.00097386
*CONN
*I *22:Y O *D INVX1
*I *23:D I *L 0.0186431
*CAP
1 21_1 0.00097386
*RES
1 *22:Y 21_1 4.32
2 21_1 *23:D 0
*END
*D_NET *24 0.00014624
*CONN
*I *25:Y O *D INVX1
*I *26:A I *L 0.0173495
*CAP
1 24_1 0.00014624
*RES
1 *25:Y 24_1 0.426667
2 24_1 *26:A 0
*END
*D_NET *27 0.00014624
*CONN
*I *28:Y O *D INVX1
*I *29:A I *L 0.00933171
*CAP
1 27_1 0.00014624
*RES
1 *28:Y 27_1 0.426667
2 27_1 *29:A 0
*END
*D_NET *30 0.0006344
*CONN
*I *31:Y O *D NAND2X1
*I *32:A I *L 0.00933171
*CAP
1 30_1 0.0006344
*RES
1 *31:Y 30_1 2.56
2 30_1 *32:A 0
*END
*D_NET *33 0.00061776
*CONN
*I *34:Y O *D BUFX2
*P *33 I
*CAP
1 33_1 0.00061776
*RES
1 *34:Y 33_1 2.77333
2 33_1 *33 0
*END
*D_NET *35 0.0004218
*CONN
*I *36:Y O *D INVX1
*I *37:A I *L 0.00933171
*CAP
1 35_1 0.0004218
*RES
1 *36:Y 35_1 1.81333
2 35_1 *37:A 0
*END
*D_NET *38 0.000363
*CONN
*I *39:Y O *D BUFX2
*P *38 I
*CAP
1 38_1 0.000363
*RES
1 *39:Y 38_1 1.6
2 38_1 *38 0
*END
*D_NET *40 0.00053316
*CONN
*I *41:Y O *D BUFX2
*P *40 I
*CAP
1 40_1 0.00053316
*RES
1 *41:Y 40_1 2.24
2 40_1 *40 0
*END
